McPAT (version 1.3 of Feb, 2015) is computing the target processor...
 
Warning: dcache array structure cannot satisfy latency constraint.

McPAT (version 1.3 of Feb, 2015) results (current print level is 2, please increase print level to see the details in components): 
*****************************************************************************************
  Technology 28 nm
  Using Long Channel Devices When Appropriate
  Interconnect metal projection= aggressive interconnect technology projection
  Core clock Rate(MHz) 3200

*****************************************************************************************
Processor: 
  Area = 198.02 mm^2
  Peak Power = 65.9001 W
  Total Leakage = 11.6448 W
  Peak Dynamic = 54.2554 W
  Subthreshold Leakage = 8.40596 W
  Subthreshold Leakage with power gating = 6.52496 W
  Gate Leakage = 3.23879 W
  Runtime Dynamic = 21.3995 W

  Total Cores: 33 cores 
  Device Type= ITRS high performance device type
    Area = 125.279 mm^2
    Peak Dynamic = 52.0533 W
    Subthreshold Leakage = 6.18246 W
    Subthreshold Leakage with power gating = 4.57511 W
    Gate Leakage = 2.50049 W
    Runtime Dynamic = 18.9826 W

  Total L2s: 
  Device Type= ITRS high performance device type
    Area = 62.1012 mm^2
    Peak Dynamic = 0.493369 W
    Subthreshold Leakage = 2.02804 W
    Subthreshold Leakage with power gating = 1.80763 W
    Gate Leakage = 0.642567 W
    Runtime Dynamic = 0.86687 W

  Total First Level Directory: 
  Device Type= ITRS high performance device type
    Area = 0.41613 mm^2
    Peak Dynamic = 0.191371 W
    Subthreshold Leakage = 0.0139673 W
    Subthreshold Leakage with power gating = 0.0102318 W
    Gate Leakage = 0.00909415 W
    Runtime Dynamic = 0.783676 W

  Total NoCs (Network/Bus): 
  Device Type= ITRS high performance device type
    Area = 1.0106 mm^2
    Peak Dynamic = 0.503109 W
    Subthreshold Leakage = 0.121159 W
    Subthreshold Leakage with power gating = 0.087721 W
    Gate Leakage = 0.0631273 W
    Runtime Dynamic = 0.166127 W

  Total MCs: 4 Memory Controllers 
  Device Type= ITRS high performance device type
    Area = 9.21274 mm^2
    Peak Dynamic = 1.01427 W
    Subthreshold Leakage = 0.0603371 W
    Subthreshold Leakage with power gating = 0.0442657 W
    Gate Leakage = 0.023513 W
    Runtime Dynamic = 0.600231 W

*****************************************************************************************
Core:
      Area = 14.1057 mm^2
      Peak Dynamic = 4.47417 W
      Subthreshold Leakage = 0.45519 W
      Subthreshold Leakage with power gating = 0.356808 W
      Gate Leakage = 0.233822 W
      Runtime Dynamic = 2.4191 W

      Instruction Fetch Unit:
        Area = 0.960695 mm^2
        Peak Dynamic = 0.775835 W
        Subthreshold Leakage = 0.0510354 W
        Subthreshold Leakage with power gating = 0.0391596 W
        Gate Leakage = 0.0328227 W
        Runtime Dynamic = 0.29377 W

      Load Store Unit:
        Area = 11.4287 mm^2
        Peak Dynamic = 0.696186 W
        Subthreshold Leakage = 0.294384 W
        Subthreshold Leakage with power gating = 0.237236 W
        Gate Leakage = 0.127693 W
        Runtime Dynamic = 0.49788 W

      Memory Management Unit:
        Area = 0.317981 mm^2
        Peak Dynamic = 0.866766 W
        Subthreshold Leakage = 0.0288651 W
        Subthreshold Leakage with power gating = 0.0211453 W
        Runtime Dynamic = 0.520999 W

      Execution Unit:
        Area = 1.39834 mm^2
        Peak Dynamic = 2.13538 W
        Subthreshold Leakage = 0.0809056 W
        Subthreshold Leakage with power gating = 0.059267 W
        Runtime Dynamic = 1.10645 W

*****************************************************************************************
Core:
      Area = 3.47418 mm^2
      Peak Dynamic = 1.48685 W
      Subthreshold Leakage = 0.178977 W
      Subthreshold Leakage with power gating = 0.131822 W
      Gate Leakage = 0.0708335 W
      Runtime Dynamic = 0.51761 W

      Instruction Fetch Unit:
        Area = 0.219839 mm^2
        Peak Dynamic = 0.241561 W
        Subthreshold Leakage = 0.00896451 W
        Subthreshold Leakage with power gating = 0.00658342 W
        Gate Leakage = 0.00435244 W
        Runtime Dynamic = 0.0730609 W

      Load Store Unit:
        Area = 0.357757 mm^2
        Peak Dynamic = 0.19763 W
        Subthreshold Leakage = 0.0135376 W
        Subthreshold Leakage with power gating = 0.0105961 W
        Gate Leakage = 0.00532731 W
        Runtime Dynamic = 0.0796783 W

      Memory Management Unit:
        Area = 0.056193 mm^2
        Peak Dynamic = 0.0645014 W
        Subthreshold Leakage = 0.00290754 W
        Subthreshold Leakage with power gating = 0.00212994 W
        Runtime Dynamic = 0.0129016 W

      Execution Unit:
        Area = 1.16964 mm^2
        Peak Dynamic = 0.983154 W
        Subthreshold Leakage = 0.0550955 W
        Subthreshold Leakage with power gating = 0.0403757 W
        Runtime Dynamic = 0.351969 W

*****************************************************************************************
Core:
      Area = 3.47418 mm^2
      Peak Dynamic = 1.48685 W
      Subthreshold Leakage = 0.178977 W
      Subthreshold Leakage with power gating = 0.131822 W
      Gate Leakage = 0.0708335 W
      Runtime Dynamic = 0.51761 W

      Instruction Fetch Unit:
        Area = 0.219839 mm^2
        Peak Dynamic = 0.241561 W
        Subthreshold Leakage = 0.00896451 W
        Subthreshold Leakage with power gating = 0.00658342 W
        Gate Leakage = 0.00435244 W
        Runtime Dynamic = 0.0730609 W

      Load Store Unit:
        Area = 0.357757 mm^2
        Peak Dynamic = 0.19763 W
        Subthreshold Leakage = 0.0135376 W
        Subthreshold Leakage with power gating = 0.0105961 W
        Gate Leakage = 0.00532731 W
        Runtime Dynamic = 0.0796783 W

      Memory Management Unit:
        Area = 0.056193 mm^2
        Peak Dynamic = 0.0645014 W
        Subthreshold Leakage = 0.00290754 W
        Subthreshold Leakage with power gating = 0.00212994 W
        Runtime Dynamic = 0.0129016 W

      Execution Unit:
        Area = 1.16964 mm^2
        Peak Dynamic = 0.983154 W
        Subthreshold Leakage = 0.0550955 W
        Subthreshold Leakage with power gating = 0.0403757 W
        Runtime Dynamic = 0.351969 W

*****************************************************************************************
Core:
      Area = 3.47418 mm^2
      Peak Dynamic = 1.48685 W
      Subthreshold Leakage = 0.178977 W
      Subthreshold Leakage with power gating = 0.131822 W
      Gate Leakage = 0.0708335 W
      Runtime Dynamic = 0.51761 W

      Instruction Fetch Unit:
        Area = 0.219839 mm^2
        Peak Dynamic = 0.241561 W
        Subthreshold Leakage = 0.00896451 W
        Subthreshold Leakage with power gating = 0.00658342 W
        Gate Leakage = 0.00435244 W
        Runtime Dynamic = 0.0730609 W

      Load Store Unit:
        Area = 0.357757 mm^2
        Peak Dynamic = 0.19763 W
        Subthreshold Leakage = 0.0135376 W
        Subthreshold Leakage with power gating = 0.0105961 W
        Gate Leakage = 0.00532731 W
        Runtime Dynamic = 0.0796783 W

      Memory Management Unit:
        Area = 0.056193 mm^2
        Peak Dynamic = 0.0645014 W
        Subthreshold Leakage = 0.00290754 W
        Subthreshold Leakage with power gating = 0.00212994 W
        Runtime Dynamic = 0.0129016 W

      Execution Unit:
        Area = 1.16964 mm^2
        Peak Dynamic = 0.983154 W
        Subthreshold Leakage = 0.0550955 W
        Subthreshold Leakage with power gating = 0.0403757 W
        Runtime Dynamic = 0.351969 W

*****************************************************************************************
Core:
      Area = 3.47418 mm^2
      Peak Dynamic = 1.48685 W
      Subthreshold Leakage = 0.178977 W
      Subthreshold Leakage with power gating = 0.131822 W
      Gate Leakage = 0.0708335 W
      Runtime Dynamic = 0.51761 W

      Instruction Fetch Unit:
        Area = 0.219839 mm^2
        Peak Dynamic = 0.241561 W
        Subthreshold Leakage = 0.00896451 W
        Subthreshold Leakage with power gating = 0.00658342 W
        Gate Leakage = 0.00435244 W
        Runtime Dynamic = 0.0730609 W

      Load Store Unit:
        Area = 0.357757 mm^2
        Peak Dynamic = 0.19763 W
        Subthreshold Leakage = 0.0135376 W
        Subthreshold Leakage with power gating = 0.0105961 W
        Gate Leakage = 0.00532731 W
        Runtime Dynamic = 0.0796783 W

      Memory Management Unit:
        Area = 0.056193 mm^2
        Peak Dynamic = 0.0645014 W
        Subthreshold Leakage = 0.00290754 W
        Subthreshold Leakage with power gating = 0.00212994 W
        Runtime Dynamic = 0.0129016 W

      Execution Unit:
        Area = 1.16964 mm^2
        Peak Dynamic = 0.983154 W
        Subthreshold Leakage = 0.0550955 W
        Subthreshold Leakage with power gating = 0.0403757 W
        Runtime Dynamic = 0.351969 W

*****************************************************************************************
Core:
      Area = 3.47418 mm^2
      Peak Dynamic = 1.48685 W
      Subthreshold Leakage = 0.178977 W
      Subthreshold Leakage with power gating = 0.131822 W
      Gate Leakage = 0.0708335 W
      Runtime Dynamic = 0.51761 W

      Instruction Fetch Unit:
        Area = 0.219839 mm^2
        Peak Dynamic = 0.241561 W
        Subthreshold Leakage = 0.00896451 W
        Subthreshold Leakage with power gating = 0.00658342 W
        Gate Leakage = 0.00435244 W
        Runtime Dynamic = 0.0730609 W

      Load Store Unit:
        Area = 0.357757 mm^2
        Peak Dynamic = 0.19763 W
        Subthreshold Leakage = 0.0135376 W
        Subthreshold Leakage with power gating = 0.0105961 W
        Gate Leakage = 0.00532731 W
        Runtime Dynamic = 0.0796783 W

      Memory Management Unit:
        Area = 0.056193 mm^2
        Peak Dynamic = 0.0645014 W
        Subthreshold Leakage = 0.00290754 W
        Subthreshold Leakage with power gating = 0.00212994 W
        Runtime Dynamic = 0.0129016 W

      Execution Unit:
        Area = 1.16964 mm^2
        Peak Dynamic = 0.983154 W
        Subthreshold Leakage = 0.0550955 W
        Subthreshold Leakage with power gating = 0.0403757 W
        Runtime Dynamic = 0.351969 W

*****************************************************************************************
Core:
      Area = 3.47418 mm^2
      Peak Dynamic = 1.48685 W
      Subthreshold Leakage = 0.178977 W
      Subthreshold Leakage with power gating = 0.131822 W
      Gate Leakage = 0.0708335 W
      Runtime Dynamic = 0.51761 W

      Instruction Fetch Unit:
        Area = 0.219839 mm^2
        Peak Dynamic = 0.241561 W
        Subthreshold Leakage = 0.00896451 W
        Subthreshold Leakage with power gating = 0.00658342 W
        Gate Leakage = 0.00435244 W
        Runtime Dynamic = 0.0730609 W

      Load Store Unit:
        Area = 0.357757 mm^2
        Peak Dynamic = 0.19763 W
        Subthreshold Leakage = 0.0135376 W
        Subthreshold Leakage with power gating = 0.0105961 W
        Gate Leakage = 0.00532731 W
        Runtime Dynamic = 0.0796783 W

      Memory Management Unit:
        Area = 0.056193 mm^2
        Peak Dynamic = 0.0645014 W
        Subthreshold Leakage = 0.00290754 W
        Subthreshold Leakage with power gating = 0.00212994 W
        Runtime Dynamic = 0.0129016 W

      Execution Unit:
        Area = 1.16964 mm^2
        Peak Dynamic = 0.983154 W
        Subthreshold Leakage = 0.0550955 W
        Subthreshold Leakage with power gating = 0.0403757 W
        Runtime Dynamic = 0.351969 W

*****************************************************************************************
Core:
      Area = 3.47418 mm^2
      Peak Dynamic = 1.48685 W
      Subthreshold Leakage = 0.178977 W
      Subthreshold Leakage with power gating = 0.131822 W
      Gate Leakage = 0.0708335 W
      Runtime Dynamic = 0.51761 W

      Instruction Fetch Unit:
        Area = 0.219839 mm^2
        Peak Dynamic = 0.241561 W
        Subthreshold Leakage = 0.00896451 W
        Subthreshold Leakage with power gating = 0.00658342 W
        Gate Leakage = 0.00435244 W
        Runtime Dynamic = 0.0730609 W

      Load Store Unit:
        Area = 0.357757 mm^2
        Peak Dynamic = 0.19763 W
        Subthreshold Leakage = 0.0135376 W
        Subthreshold Leakage with power gating = 0.0105961 W
        Gate Leakage = 0.00532731 W
        Runtime Dynamic = 0.0796783 W

      Memory Management Unit:
        Area = 0.056193 mm^2
        Peak Dynamic = 0.0645014 W
        Subthreshold Leakage = 0.00290754 W
        Subthreshold Leakage with power gating = 0.00212994 W
        Runtime Dynamic = 0.0129016 W

      Execution Unit:
        Area = 1.16964 mm^2
        Peak Dynamic = 0.983154 W
        Subthreshold Leakage = 0.0550955 W
        Subthreshold Leakage with power gating = 0.0403757 W
        Runtime Dynamic = 0.351969 W

*****************************************************************************************
Core:
      Area = 3.47418 mm^2
      Peak Dynamic = 1.48685 W
      Subthreshold Leakage = 0.178977 W
      Subthreshold Leakage with power gating = 0.131822 W
      Gate Leakage = 0.0708335 W
      Runtime Dynamic = 0.51761 W

      Instruction Fetch Unit:
        Area = 0.219839 mm^2
        Peak Dynamic = 0.241561 W
        Subthreshold Leakage = 0.00896451 W
        Subthreshold Leakage with power gating = 0.00658342 W
        Gate Leakage = 0.00435244 W
        Runtime Dynamic = 0.0730609 W

      Load Store Unit:
        Area = 0.357757 mm^2
        Peak Dynamic = 0.19763 W
        Subthreshold Leakage = 0.0135376 W
        Subthreshold Leakage with power gating = 0.0105961 W
        Gate Leakage = 0.00532731 W
        Runtime Dynamic = 0.0796783 W

      Memory Management Unit:
        Area = 0.056193 mm^2
        Peak Dynamic = 0.0645014 W
        Subthreshold Leakage = 0.00290754 W
        Subthreshold Leakage with power gating = 0.00212994 W
        Runtime Dynamic = 0.0129016 W

      Execution Unit:
        Area = 1.16964 mm^2
        Peak Dynamic = 0.983154 W
        Subthreshold Leakage = 0.0550955 W
        Subthreshold Leakage with power gating = 0.0403757 W
        Runtime Dynamic = 0.351969 W

*****************************************************************************************
Core:
      Area = 3.47418 mm^2
      Peak Dynamic = 1.48685 W
      Subthreshold Leakage = 0.178977 W
      Subthreshold Leakage with power gating = 0.131822 W
      Gate Leakage = 0.0708335 W
      Runtime Dynamic = 0.51761 W

      Instruction Fetch Unit:
        Area = 0.219839 mm^2
        Peak Dynamic = 0.241561 W
        Subthreshold Leakage = 0.00896451 W
        Subthreshold Leakage with power gating = 0.00658342 W
        Gate Leakage = 0.00435244 W
        Runtime Dynamic = 0.0730609 W

      Load Store Unit:
        Area = 0.357757 mm^2
        Peak Dynamic = 0.19763 W
        Subthreshold Leakage = 0.0135376 W
        Subthreshold Leakage with power gating = 0.0105961 W
        Gate Leakage = 0.00532731 W
        Runtime Dynamic = 0.0796783 W

      Memory Management Unit:
        Area = 0.056193 mm^2
        Peak Dynamic = 0.0645014 W
        Subthreshold Leakage = 0.00290754 W
        Subthreshold Leakage with power gating = 0.00212994 W
        Runtime Dynamic = 0.0129016 W

      Execution Unit:
        Area = 1.16964 mm^2
        Peak Dynamic = 0.983154 W
        Subthreshold Leakage = 0.0550955 W
        Subthreshold Leakage with power gating = 0.0403757 W
        Runtime Dynamic = 0.351969 W

*****************************************************************************************
Core:
      Area = 3.47418 mm^2
      Peak Dynamic = 1.48685 W
      Subthreshold Leakage = 0.178977 W
      Subthreshold Leakage with power gating = 0.131822 W
      Gate Leakage = 0.0708335 W
      Runtime Dynamic = 0.51761 W

      Instruction Fetch Unit:
        Area = 0.219839 mm^2
        Peak Dynamic = 0.241561 W
        Subthreshold Leakage = 0.00896451 W
        Subthreshold Leakage with power gating = 0.00658342 W
        Gate Leakage = 0.00435244 W
        Runtime Dynamic = 0.0730609 W

      Load Store Unit:
        Area = 0.357757 mm^2
        Peak Dynamic = 0.19763 W
        Subthreshold Leakage = 0.0135376 W
        Subthreshold Leakage with power gating = 0.0105961 W
        Gate Leakage = 0.00532731 W
        Runtime Dynamic = 0.0796783 W

      Memory Management Unit:
        Area = 0.056193 mm^2
        Peak Dynamic = 0.0645014 W
        Subthreshold Leakage = 0.00290754 W
        Subthreshold Leakage with power gating = 0.00212994 W
        Runtime Dynamic = 0.0129016 W

      Execution Unit:
        Area = 1.16964 mm^2
        Peak Dynamic = 0.983154 W
        Subthreshold Leakage = 0.0550955 W
        Subthreshold Leakage with power gating = 0.0403757 W
        Runtime Dynamic = 0.351969 W

*****************************************************************************************
Core:
      Area = 3.47418 mm^2
      Peak Dynamic = 1.48685 W
      Subthreshold Leakage = 0.178977 W
      Subthreshold Leakage with power gating = 0.131822 W
      Gate Leakage = 0.0708335 W
      Runtime Dynamic = 0.51761 W

      Instruction Fetch Unit:
        Area = 0.219839 mm^2
        Peak Dynamic = 0.241561 W
        Subthreshold Leakage = 0.00896451 W
        Subthreshold Leakage with power gating = 0.00658342 W
        Gate Leakage = 0.00435244 W
        Runtime Dynamic = 0.0730609 W

      Load Store Unit:
        Area = 0.357757 mm^2
        Peak Dynamic = 0.19763 W
        Subthreshold Leakage = 0.0135376 W
        Subthreshold Leakage with power gating = 0.0105961 W
        Gate Leakage = 0.00532731 W
        Runtime Dynamic = 0.0796783 W

      Memory Management Unit:
        Area = 0.056193 mm^2
        Peak Dynamic = 0.0645014 W
        Subthreshold Leakage = 0.00290754 W
        Subthreshold Leakage with power gating = 0.00212994 W
        Runtime Dynamic = 0.0129016 W

      Execution Unit:
        Area = 1.16964 mm^2
        Peak Dynamic = 0.983154 W
        Subthreshold Leakage = 0.0550955 W
        Subthreshold Leakage with power gating = 0.0403757 W
        Runtime Dynamic = 0.351969 W

*****************************************************************************************
Core:
      Area = 3.47418 mm^2
      Peak Dynamic = 1.48685 W
      Subthreshold Leakage = 0.178977 W
      Subthreshold Leakage with power gating = 0.131822 W
      Gate Leakage = 0.0708335 W
      Runtime Dynamic = 0.51761 W

      Instruction Fetch Unit:
        Area = 0.219839 mm^2
        Peak Dynamic = 0.241561 W
        Subthreshold Leakage = 0.00896451 W
        Subthreshold Leakage with power gating = 0.00658342 W
        Gate Leakage = 0.00435244 W
        Runtime Dynamic = 0.0730609 W

      Load Store Unit:
        Area = 0.357757 mm^2
        Peak Dynamic = 0.19763 W
        Subthreshold Leakage = 0.0135376 W
        Subthreshold Leakage with power gating = 0.0105961 W
        Gate Leakage = 0.00532731 W
        Runtime Dynamic = 0.0796783 W

      Memory Management Unit:
        Area = 0.056193 mm^2
        Peak Dynamic = 0.0645014 W
        Subthreshold Leakage = 0.00290754 W
        Subthreshold Leakage with power gating = 0.00212994 W
        Runtime Dynamic = 0.0129016 W

      Execution Unit:
        Area = 1.16964 mm^2
        Peak Dynamic = 0.983154 W
        Subthreshold Leakage = 0.0550955 W
        Subthreshold Leakage with power gating = 0.0403757 W
        Runtime Dynamic = 0.351969 W

*****************************************************************************************
Core:
      Area = 3.47418 mm^2
      Peak Dynamic = 1.48685 W
      Subthreshold Leakage = 0.178977 W
      Subthreshold Leakage with power gating = 0.131822 W
      Gate Leakage = 0.0708335 W
      Runtime Dynamic = 0.51761 W

      Instruction Fetch Unit:
        Area = 0.219839 mm^2
        Peak Dynamic = 0.241561 W
        Subthreshold Leakage = 0.00896451 W
        Subthreshold Leakage with power gating = 0.00658342 W
        Gate Leakage = 0.00435244 W
        Runtime Dynamic = 0.0730609 W

      Load Store Unit:
        Area = 0.357757 mm^2
        Peak Dynamic = 0.19763 W
        Subthreshold Leakage = 0.0135376 W
        Subthreshold Leakage with power gating = 0.0105961 W
        Gate Leakage = 0.00532731 W
        Runtime Dynamic = 0.0796783 W

      Memory Management Unit:
        Area = 0.056193 mm^2
        Peak Dynamic = 0.0645014 W
        Subthreshold Leakage = 0.00290754 W
        Subthreshold Leakage with power gating = 0.00212994 W
        Runtime Dynamic = 0.0129016 W

      Execution Unit:
        Area = 1.16964 mm^2
        Peak Dynamic = 0.983154 W
        Subthreshold Leakage = 0.0550955 W
        Subthreshold Leakage with power gating = 0.0403757 W
        Runtime Dynamic = 0.351969 W

*****************************************************************************************
Core:
      Area = 3.47418 mm^2
      Peak Dynamic = 1.48685 W
      Subthreshold Leakage = 0.178977 W
      Subthreshold Leakage with power gating = 0.131822 W
      Gate Leakage = 0.0708335 W
      Runtime Dynamic = 0.51761 W

      Instruction Fetch Unit:
        Area = 0.219839 mm^2
        Peak Dynamic = 0.241561 W
        Subthreshold Leakage = 0.00896451 W
        Subthreshold Leakage with power gating = 0.00658342 W
        Gate Leakage = 0.00435244 W
        Runtime Dynamic = 0.0730609 W

      Load Store Unit:
        Area = 0.357757 mm^2
        Peak Dynamic = 0.19763 W
        Subthreshold Leakage = 0.0135376 W
        Subthreshold Leakage with power gating = 0.0105961 W
        Gate Leakage = 0.00532731 W
        Runtime Dynamic = 0.0796783 W

      Memory Management Unit:
        Area = 0.056193 mm^2
        Peak Dynamic = 0.0645014 W
        Subthreshold Leakage = 0.00290754 W
        Subthreshold Leakage with power gating = 0.00212994 W
        Runtime Dynamic = 0.0129016 W

      Execution Unit:
        Area = 1.16964 mm^2
        Peak Dynamic = 0.983154 W
        Subthreshold Leakage = 0.0550955 W
        Subthreshold Leakage with power gating = 0.0403757 W
        Runtime Dynamic = 0.351969 W

*****************************************************************************************
Core:
      Area = 3.47418 mm^2
      Peak Dynamic = 1.48685 W
      Subthreshold Leakage = 0.178977 W
      Subthreshold Leakage with power gating = 0.131822 W
      Gate Leakage = 0.0708335 W
      Runtime Dynamic = 0.51761 W

      Instruction Fetch Unit:
        Area = 0.219839 mm^2
        Peak Dynamic = 0.241561 W
        Subthreshold Leakage = 0.00896451 W
        Subthreshold Leakage with power gating = 0.00658342 W
        Gate Leakage = 0.00435244 W
        Runtime Dynamic = 0.0730609 W

      Load Store Unit:
        Area = 0.357757 mm^2
        Peak Dynamic = 0.19763 W
        Subthreshold Leakage = 0.0135376 W
        Subthreshold Leakage with power gating = 0.0105961 W
        Gate Leakage = 0.00532731 W
        Runtime Dynamic = 0.0796783 W

      Memory Management Unit:
        Area = 0.056193 mm^2
        Peak Dynamic = 0.0645014 W
        Subthreshold Leakage = 0.00290754 W
        Subthreshold Leakage with power gating = 0.00212994 W
        Runtime Dynamic = 0.0129016 W

      Execution Unit:
        Area = 1.16964 mm^2
        Peak Dynamic = 0.983154 W
        Subthreshold Leakage = 0.0550955 W
        Subthreshold Leakage with power gating = 0.0403757 W
        Runtime Dynamic = 0.351969 W

*****************************************************************************************
Core:
      Area = 3.47418 mm^2
      Peak Dynamic = 1.48685 W
      Subthreshold Leakage = 0.178977 W
      Subthreshold Leakage with power gating = 0.131822 W
      Gate Leakage = 0.0708335 W
      Runtime Dynamic = 0.51761 W

      Instruction Fetch Unit:
        Area = 0.219839 mm^2
        Peak Dynamic = 0.241561 W
        Subthreshold Leakage = 0.00896451 W
        Subthreshold Leakage with power gating = 0.00658342 W
        Gate Leakage = 0.00435244 W
        Runtime Dynamic = 0.0730609 W

      Load Store Unit:
        Area = 0.357757 mm^2
        Peak Dynamic = 0.19763 W
        Subthreshold Leakage = 0.0135376 W
        Subthreshold Leakage with power gating = 0.0105961 W
        Gate Leakage = 0.00532731 W
        Runtime Dynamic = 0.0796783 W

      Memory Management Unit:
        Area = 0.056193 mm^2
        Peak Dynamic = 0.0645014 W
        Subthreshold Leakage = 0.00290754 W
        Subthreshold Leakage with power gating = 0.00212994 W
        Runtime Dynamic = 0.0129016 W

      Execution Unit:
        Area = 1.16964 mm^2
        Peak Dynamic = 0.983154 W
        Subthreshold Leakage = 0.0550955 W
        Subthreshold Leakage with power gating = 0.0403757 W
        Runtime Dynamic = 0.351969 W

*****************************************************************************************
Core:
      Area = 3.47418 mm^2
      Peak Dynamic = 1.48685 W
      Subthreshold Leakage = 0.178977 W
      Subthreshold Leakage with power gating = 0.131822 W
      Gate Leakage = 0.0708335 W
      Runtime Dynamic = 0.51761 W

      Instruction Fetch Unit:
        Area = 0.219839 mm^2
        Peak Dynamic = 0.241561 W
        Subthreshold Leakage = 0.00896451 W
        Subthreshold Leakage with power gating = 0.00658342 W
        Gate Leakage = 0.00435244 W
        Runtime Dynamic = 0.0730609 W

      Load Store Unit:
        Area = 0.357757 mm^2
        Peak Dynamic = 0.19763 W
        Subthreshold Leakage = 0.0135376 W
        Subthreshold Leakage with power gating = 0.0105961 W
        Gate Leakage = 0.00532731 W
        Runtime Dynamic = 0.0796783 W

      Memory Management Unit:
        Area = 0.056193 mm^2
        Peak Dynamic = 0.0645014 W
        Subthreshold Leakage = 0.00290754 W
        Subthreshold Leakage with power gating = 0.00212994 W
        Runtime Dynamic = 0.0129016 W

      Execution Unit:
        Area = 1.16964 mm^2
        Peak Dynamic = 0.983154 W
        Subthreshold Leakage = 0.0550955 W
        Subthreshold Leakage with power gating = 0.0403757 W
        Runtime Dynamic = 0.351969 W

*****************************************************************************************
Core:
      Area = 3.47418 mm^2
      Peak Dynamic = 1.48685 W
      Subthreshold Leakage = 0.178977 W
      Subthreshold Leakage with power gating = 0.131822 W
      Gate Leakage = 0.0708335 W
      Runtime Dynamic = 0.51761 W

      Instruction Fetch Unit:
        Area = 0.219839 mm^2
        Peak Dynamic = 0.241561 W
        Subthreshold Leakage = 0.00896451 W
        Subthreshold Leakage with power gating = 0.00658342 W
        Gate Leakage = 0.00435244 W
        Runtime Dynamic = 0.0730609 W

      Load Store Unit:
        Area = 0.357757 mm^2
        Peak Dynamic = 0.19763 W
        Subthreshold Leakage = 0.0135376 W
        Subthreshold Leakage with power gating = 0.0105961 W
        Gate Leakage = 0.00532731 W
        Runtime Dynamic = 0.0796783 W

      Memory Management Unit:
        Area = 0.056193 mm^2
        Peak Dynamic = 0.0645014 W
        Subthreshold Leakage = 0.00290754 W
        Subthreshold Leakage with power gating = 0.00212994 W
        Runtime Dynamic = 0.0129016 W

      Execution Unit:
        Area = 1.16964 mm^2
        Peak Dynamic = 0.983154 W
        Subthreshold Leakage = 0.0550955 W
        Subthreshold Leakage with power gating = 0.0403757 W
        Runtime Dynamic = 0.351969 W

*****************************************************************************************
Core:
      Area = 3.47418 mm^2
      Peak Dynamic = 1.48685 W
      Subthreshold Leakage = 0.178977 W
      Subthreshold Leakage with power gating = 0.131822 W
      Gate Leakage = 0.0708335 W
      Runtime Dynamic = 0.51761 W

      Instruction Fetch Unit:
        Area = 0.219839 mm^2
        Peak Dynamic = 0.241561 W
        Subthreshold Leakage = 0.00896451 W
        Subthreshold Leakage with power gating = 0.00658342 W
        Gate Leakage = 0.00435244 W
        Runtime Dynamic = 0.0730609 W

      Load Store Unit:
        Area = 0.357757 mm^2
        Peak Dynamic = 0.19763 W
        Subthreshold Leakage = 0.0135376 W
        Subthreshold Leakage with power gating = 0.0105961 W
        Gate Leakage = 0.00532731 W
        Runtime Dynamic = 0.0796783 W

      Memory Management Unit:
        Area = 0.056193 mm^2
        Peak Dynamic = 0.0645014 W
        Subthreshold Leakage = 0.00290754 W
        Subthreshold Leakage with power gating = 0.00212994 W
        Runtime Dynamic = 0.0129016 W

      Execution Unit:
        Area = 1.16964 mm^2
        Peak Dynamic = 0.983154 W
        Subthreshold Leakage = 0.0550955 W
        Subthreshold Leakage with power gating = 0.0403757 W
        Runtime Dynamic = 0.351969 W

*****************************************************************************************
Core:
      Area = 3.47418 mm^2
      Peak Dynamic = 1.48685 W
      Subthreshold Leakage = 0.178977 W
      Subthreshold Leakage with power gating = 0.131822 W
      Gate Leakage = 0.0708335 W
      Runtime Dynamic = 0.51761 W

      Instruction Fetch Unit:
        Area = 0.219839 mm^2
        Peak Dynamic = 0.241561 W
        Subthreshold Leakage = 0.00896451 W
        Subthreshold Leakage with power gating = 0.00658342 W
        Gate Leakage = 0.00435244 W
        Runtime Dynamic = 0.0730609 W

      Load Store Unit:
        Area = 0.357757 mm^2
        Peak Dynamic = 0.19763 W
        Subthreshold Leakage = 0.0135376 W
        Subthreshold Leakage with power gating = 0.0105961 W
        Gate Leakage = 0.00532731 W
        Runtime Dynamic = 0.0796783 W

      Memory Management Unit:
        Area = 0.056193 mm^2
        Peak Dynamic = 0.0645014 W
        Subthreshold Leakage = 0.00290754 W
        Subthreshold Leakage with power gating = 0.00212994 W
        Runtime Dynamic = 0.0129016 W

      Execution Unit:
        Area = 1.16964 mm^2
        Peak Dynamic = 0.983154 W
        Subthreshold Leakage = 0.0550955 W
        Subthreshold Leakage with power gating = 0.0403757 W
        Runtime Dynamic = 0.351969 W

*****************************************************************************************
Core:
      Area = 3.47418 mm^2
      Peak Dynamic = 1.48685 W
      Subthreshold Leakage = 0.178977 W
      Subthreshold Leakage with power gating = 0.131822 W
      Gate Leakage = 0.0708335 W
      Runtime Dynamic = 0.51761 W

      Instruction Fetch Unit:
        Area = 0.219839 mm^2
        Peak Dynamic = 0.241561 W
        Subthreshold Leakage = 0.00896451 W
        Subthreshold Leakage with power gating = 0.00658342 W
        Gate Leakage = 0.00435244 W
        Runtime Dynamic = 0.0730609 W

      Load Store Unit:
        Area = 0.357757 mm^2
        Peak Dynamic = 0.19763 W
        Subthreshold Leakage = 0.0135376 W
        Subthreshold Leakage with power gating = 0.0105961 W
        Gate Leakage = 0.00532731 W
        Runtime Dynamic = 0.0796783 W

      Memory Management Unit:
        Area = 0.056193 mm^2
        Peak Dynamic = 0.0645014 W
        Subthreshold Leakage = 0.00290754 W
        Subthreshold Leakage with power gating = 0.00212994 W
        Runtime Dynamic = 0.0129016 W

      Execution Unit:
        Area = 1.16964 mm^2
        Peak Dynamic = 0.983154 W
        Subthreshold Leakage = 0.0550955 W
        Subthreshold Leakage with power gating = 0.0403757 W
        Runtime Dynamic = 0.351969 W

*****************************************************************************************
Core:
      Area = 3.47418 mm^2
      Peak Dynamic = 1.48685 W
      Subthreshold Leakage = 0.178977 W
      Subthreshold Leakage with power gating = 0.131822 W
      Gate Leakage = 0.0708335 W
      Runtime Dynamic = 0.51761 W

      Instruction Fetch Unit:
        Area = 0.219839 mm^2
        Peak Dynamic = 0.241561 W
        Subthreshold Leakage = 0.00896451 W
        Subthreshold Leakage with power gating = 0.00658342 W
        Gate Leakage = 0.00435244 W
        Runtime Dynamic = 0.0730609 W

      Load Store Unit:
        Area = 0.357757 mm^2
        Peak Dynamic = 0.19763 W
        Subthreshold Leakage = 0.0135376 W
        Subthreshold Leakage with power gating = 0.0105961 W
        Gate Leakage = 0.00532731 W
        Runtime Dynamic = 0.0796783 W

      Memory Management Unit:
        Area = 0.056193 mm^2
        Peak Dynamic = 0.0645014 W
        Subthreshold Leakage = 0.00290754 W
        Subthreshold Leakage with power gating = 0.00212994 W
        Runtime Dynamic = 0.0129016 W

      Execution Unit:
        Area = 1.16964 mm^2
        Peak Dynamic = 0.983154 W
        Subthreshold Leakage = 0.0550955 W
        Subthreshold Leakage with power gating = 0.0403757 W
        Runtime Dynamic = 0.351969 W

*****************************************************************************************
Core:
      Area = 3.47418 mm^2
      Peak Dynamic = 1.48685 W
      Subthreshold Leakage = 0.178977 W
      Subthreshold Leakage with power gating = 0.131822 W
      Gate Leakage = 0.0708335 W
      Runtime Dynamic = 0.51761 W

      Instruction Fetch Unit:
        Area = 0.219839 mm^2
        Peak Dynamic = 0.241561 W
        Subthreshold Leakage = 0.00896451 W
        Subthreshold Leakage with power gating = 0.00658342 W
        Gate Leakage = 0.00435244 W
        Runtime Dynamic = 0.0730609 W

      Load Store Unit:
        Area = 0.357757 mm^2
        Peak Dynamic = 0.19763 W
        Subthreshold Leakage = 0.0135376 W
        Subthreshold Leakage with power gating = 0.0105961 W
        Gate Leakage = 0.00532731 W
        Runtime Dynamic = 0.0796783 W

      Memory Management Unit:
        Area = 0.056193 mm^2
        Peak Dynamic = 0.0645014 W
        Subthreshold Leakage = 0.00290754 W
        Subthreshold Leakage with power gating = 0.00212994 W
        Runtime Dynamic = 0.0129016 W

      Execution Unit:
        Area = 1.16964 mm^2
        Peak Dynamic = 0.983154 W
        Subthreshold Leakage = 0.0550955 W
        Subthreshold Leakage with power gating = 0.0403757 W
        Runtime Dynamic = 0.351969 W

*****************************************************************************************
Core:
      Area = 3.47418 mm^2
      Peak Dynamic = 1.48685 W
      Subthreshold Leakage = 0.178977 W
      Subthreshold Leakage with power gating = 0.131822 W
      Gate Leakage = 0.0708335 W
      Runtime Dynamic = 0.51761 W

      Instruction Fetch Unit:
        Area = 0.219839 mm^2
        Peak Dynamic = 0.241561 W
        Subthreshold Leakage = 0.00896451 W
        Subthreshold Leakage with power gating = 0.00658342 W
        Gate Leakage = 0.00435244 W
        Runtime Dynamic = 0.0730609 W

      Load Store Unit:
        Area = 0.357757 mm^2
        Peak Dynamic = 0.19763 W
        Subthreshold Leakage = 0.0135376 W
        Subthreshold Leakage with power gating = 0.0105961 W
        Gate Leakage = 0.00532731 W
        Runtime Dynamic = 0.0796783 W

      Memory Management Unit:
        Area = 0.056193 mm^2
        Peak Dynamic = 0.0645014 W
        Subthreshold Leakage = 0.00290754 W
        Subthreshold Leakage with power gating = 0.00212994 W
        Runtime Dynamic = 0.0129016 W

      Execution Unit:
        Area = 1.16964 mm^2
        Peak Dynamic = 0.983154 W
        Subthreshold Leakage = 0.0550955 W
        Subthreshold Leakage with power gating = 0.0403757 W
        Runtime Dynamic = 0.351969 W

*****************************************************************************************
Core:
      Area = 3.47418 mm^2
      Peak Dynamic = 1.48685 W
      Subthreshold Leakage = 0.178977 W
      Subthreshold Leakage with power gating = 0.131822 W
      Gate Leakage = 0.0708335 W
      Runtime Dynamic = 0.51761 W

      Instruction Fetch Unit:
        Area = 0.219839 mm^2
        Peak Dynamic = 0.241561 W
        Subthreshold Leakage = 0.00896451 W
        Subthreshold Leakage with power gating = 0.00658342 W
        Gate Leakage = 0.00435244 W
        Runtime Dynamic = 0.0730609 W

      Load Store Unit:
        Area = 0.357757 mm^2
        Peak Dynamic = 0.19763 W
        Subthreshold Leakage = 0.0135376 W
        Subthreshold Leakage with power gating = 0.0105961 W
        Gate Leakage = 0.00532731 W
        Runtime Dynamic = 0.0796783 W

      Memory Management Unit:
        Area = 0.056193 mm^2
        Peak Dynamic = 0.0645014 W
        Subthreshold Leakage = 0.00290754 W
        Subthreshold Leakage with power gating = 0.00212994 W
        Runtime Dynamic = 0.0129016 W

      Execution Unit:
        Area = 1.16964 mm^2
        Peak Dynamic = 0.983154 W
        Subthreshold Leakage = 0.0550955 W
        Subthreshold Leakage with power gating = 0.0403757 W
        Runtime Dynamic = 0.351969 W

*****************************************************************************************
Core:
      Area = 3.47418 mm^2
      Peak Dynamic = 1.48685 W
      Subthreshold Leakage = 0.178977 W
      Subthreshold Leakage with power gating = 0.131822 W
      Gate Leakage = 0.0708335 W
      Runtime Dynamic = 0.51761 W

      Instruction Fetch Unit:
        Area = 0.219839 mm^2
        Peak Dynamic = 0.241561 W
        Subthreshold Leakage = 0.00896451 W
        Subthreshold Leakage with power gating = 0.00658342 W
        Gate Leakage = 0.00435244 W
        Runtime Dynamic = 0.0730609 W

      Load Store Unit:
        Area = 0.357757 mm^2
        Peak Dynamic = 0.19763 W
        Subthreshold Leakage = 0.0135376 W
        Subthreshold Leakage with power gating = 0.0105961 W
        Gate Leakage = 0.00532731 W
        Runtime Dynamic = 0.0796783 W

      Memory Management Unit:
        Area = 0.056193 mm^2
        Peak Dynamic = 0.0645014 W
        Subthreshold Leakage = 0.00290754 W
        Subthreshold Leakage with power gating = 0.00212994 W
        Runtime Dynamic = 0.0129016 W

      Execution Unit:
        Area = 1.16964 mm^2
        Peak Dynamic = 0.983154 W
        Subthreshold Leakage = 0.0550955 W
        Subthreshold Leakage with power gating = 0.0403757 W
        Runtime Dynamic = 0.351969 W

*****************************************************************************************
Core:
      Area = 3.47418 mm^2
      Peak Dynamic = 1.48685 W
      Subthreshold Leakage = 0.178977 W
      Subthreshold Leakage with power gating = 0.131822 W
      Gate Leakage = 0.0708335 W
      Runtime Dynamic = 0.51761 W

      Instruction Fetch Unit:
        Area = 0.219839 mm^2
        Peak Dynamic = 0.241561 W
        Subthreshold Leakage = 0.00896451 W
        Subthreshold Leakage with power gating = 0.00658342 W
        Gate Leakage = 0.00435244 W
        Runtime Dynamic = 0.0730609 W

      Load Store Unit:
        Area = 0.357757 mm^2
        Peak Dynamic = 0.19763 W
        Subthreshold Leakage = 0.0135376 W
        Subthreshold Leakage with power gating = 0.0105961 W
        Gate Leakage = 0.00532731 W
        Runtime Dynamic = 0.0796783 W

      Memory Management Unit:
        Area = 0.056193 mm^2
        Peak Dynamic = 0.0645014 W
        Subthreshold Leakage = 0.00290754 W
        Subthreshold Leakage with power gating = 0.00212994 W
        Runtime Dynamic = 0.0129016 W

      Execution Unit:
        Area = 1.16964 mm^2
        Peak Dynamic = 0.983154 W
        Subthreshold Leakage = 0.0550955 W
        Subthreshold Leakage with power gating = 0.0403757 W
        Runtime Dynamic = 0.351969 W

*****************************************************************************************
Core:
      Area = 3.47418 mm^2
      Peak Dynamic = 1.48685 W
      Subthreshold Leakage = 0.178977 W
      Subthreshold Leakage with power gating = 0.131822 W
      Gate Leakage = 0.0708335 W
      Runtime Dynamic = 0.51761 W

      Instruction Fetch Unit:
        Area = 0.219839 mm^2
        Peak Dynamic = 0.241561 W
        Subthreshold Leakage = 0.00896451 W
        Subthreshold Leakage with power gating = 0.00658342 W
        Gate Leakage = 0.00435244 W
        Runtime Dynamic = 0.0730609 W

      Load Store Unit:
        Area = 0.357757 mm^2
        Peak Dynamic = 0.19763 W
        Subthreshold Leakage = 0.0135376 W
        Subthreshold Leakage with power gating = 0.0105961 W
        Gate Leakage = 0.00532731 W
        Runtime Dynamic = 0.0796783 W

      Memory Management Unit:
        Area = 0.056193 mm^2
        Peak Dynamic = 0.0645014 W
        Subthreshold Leakage = 0.00290754 W
        Subthreshold Leakage with power gating = 0.00212994 W
        Runtime Dynamic = 0.0129016 W

      Execution Unit:
        Area = 1.16964 mm^2
        Peak Dynamic = 0.983154 W
        Subthreshold Leakage = 0.0550955 W
        Subthreshold Leakage with power gating = 0.0403757 W
        Runtime Dynamic = 0.351969 W

*****************************************************************************************
Core:
      Area = 3.47418 mm^2
      Peak Dynamic = 1.48685 W
      Subthreshold Leakage = 0.178977 W
      Subthreshold Leakage with power gating = 0.131822 W
      Gate Leakage = 0.0708335 W
      Runtime Dynamic = 0.51761 W

      Instruction Fetch Unit:
        Area = 0.219839 mm^2
        Peak Dynamic = 0.241561 W
        Subthreshold Leakage = 0.00896451 W
        Subthreshold Leakage with power gating = 0.00658342 W
        Gate Leakage = 0.00435244 W
        Runtime Dynamic = 0.0730609 W

      Load Store Unit:
        Area = 0.357757 mm^2
        Peak Dynamic = 0.19763 W
        Subthreshold Leakage = 0.0135376 W
        Subthreshold Leakage with power gating = 0.0105961 W
        Gate Leakage = 0.00532731 W
        Runtime Dynamic = 0.0796783 W

      Memory Management Unit:
        Area = 0.056193 mm^2
        Peak Dynamic = 0.0645014 W
        Subthreshold Leakage = 0.00290754 W
        Subthreshold Leakage with power gating = 0.00212994 W
        Runtime Dynamic = 0.0129016 W

      Execution Unit:
        Area = 1.16964 mm^2
        Peak Dynamic = 0.983154 W
        Subthreshold Leakage = 0.0550955 W
        Subthreshold Leakage with power gating = 0.0403757 W
        Runtime Dynamic = 0.351969 W

*****************************************************************************************
Core:
      Area = 3.47418 mm^2
      Peak Dynamic = 1.48685 W
      Subthreshold Leakage = 0.178977 W
      Subthreshold Leakage with power gating = 0.131822 W
      Gate Leakage = 0.0708335 W
      Runtime Dynamic = 0.51761 W

      Instruction Fetch Unit:
        Area = 0.219839 mm^2
        Peak Dynamic = 0.241561 W
        Subthreshold Leakage = 0.00896451 W
        Subthreshold Leakage with power gating = 0.00658342 W
        Gate Leakage = 0.00435244 W
        Runtime Dynamic = 0.0730609 W

      Load Store Unit:
        Area = 0.357757 mm^2
        Peak Dynamic = 0.19763 W
        Subthreshold Leakage = 0.0135376 W
        Subthreshold Leakage with power gating = 0.0105961 W
        Gate Leakage = 0.00532731 W
        Runtime Dynamic = 0.0796783 W

      Memory Management Unit:
        Area = 0.056193 mm^2
        Peak Dynamic = 0.0645014 W
        Subthreshold Leakage = 0.00290754 W
        Subthreshold Leakage with power gating = 0.00212994 W
        Runtime Dynamic = 0.0129016 W

      Execution Unit:
        Area = 1.16964 mm^2
        Peak Dynamic = 0.983154 W
        Subthreshold Leakage = 0.0550955 W
        Subthreshold Leakage with power gating = 0.0403757 W
        Runtime Dynamic = 0.351969 W

*****************************************************************************************
Core:
      Area = 3.47418 mm^2
      Peak Dynamic = 1.48685 W
      Subthreshold Leakage = 0.178977 W
      Subthreshold Leakage with power gating = 0.131822 W
      Gate Leakage = 0.0708335 W
      Runtime Dynamic = 0.51761 W

      Instruction Fetch Unit:
        Area = 0.219839 mm^2
        Peak Dynamic = 0.241561 W
        Subthreshold Leakage = 0.00896451 W
        Subthreshold Leakage with power gating = 0.00658342 W
        Gate Leakage = 0.00435244 W
        Runtime Dynamic = 0.0730609 W

      Load Store Unit:
        Area = 0.357757 mm^2
        Peak Dynamic = 0.19763 W
        Subthreshold Leakage = 0.0135376 W
        Subthreshold Leakage with power gating = 0.0105961 W
        Gate Leakage = 0.00532731 W
        Runtime Dynamic = 0.0796783 W

      Memory Management Unit:
        Area = 0.056193 mm^2
        Peak Dynamic = 0.0645014 W
        Subthreshold Leakage = 0.00290754 W
        Subthreshold Leakage with power gating = 0.00212994 W
        Runtime Dynamic = 0.0129016 W

      Execution Unit:
        Area = 1.16964 mm^2
        Peak Dynamic = 0.983154 W
        Subthreshold Leakage = 0.0550955 W
        Subthreshold Leakage with power gating = 0.0403757 W
        Runtime Dynamic = 0.351969 W

*****************************************************************************************
Core:
      Area = 3.47418 mm^2
      Peak Dynamic = 1.48685 W
      Subthreshold Leakage = 0.178977 W
      Subthreshold Leakage with power gating = 0.131822 W
      Gate Leakage = 0.0708335 W
      Runtime Dynamic = 0.51761 W

      Instruction Fetch Unit:
        Area = 0.219839 mm^2
        Peak Dynamic = 0.241561 W
        Subthreshold Leakage = 0.00896451 W
        Subthreshold Leakage with power gating = 0.00658342 W
        Gate Leakage = 0.00435244 W
        Runtime Dynamic = 0.0730609 W

      Load Store Unit:
        Area = 0.357757 mm^2
        Peak Dynamic = 0.19763 W
        Subthreshold Leakage = 0.0135376 W
        Subthreshold Leakage with power gating = 0.0105961 W
        Gate Leakage = 0.00532731 W
        Runtime Dynamic = 0.0796783 W

      Memory Management Unit:
        Area = 0.056193 mm^2
        Peak Dynamic = 0.0645014 W
        Subthreshold Leakage = 0.00290754 W
        Subthreshold Leakage with power gating = 0.00212994 W
        Runtime Dynamic = 0.0129016 W

      Execution Unit:
        Area = 1.16964 mm^2
        Peak Dynamic = 0.983154 W
        Subthreshold Leakage = 0.0550955 W
        Subthreshold Leakage with power gating = 0.0403757 W
        Runtime Dynamic = 0.351969 W

*****************************************************************************************
L2
      Area = 62.1012 mm^2
      Peak Dynamic = 0.493369 W
      Subthreshold Leakage = 2.02804 W
      Subthreshold Leakage with power gating = 1.80763 W
      Gate Leakage = 0.642567 W
      Runtime Dynamic = 0.86687 W

*****************************************************************************************
First Level Directory
      Area = 0.208065 mm^2
      Peak Dynamic = 0.0956857 W
      Subthreshold Leakage = 0.00698364 W
      Subthreshold Leakage with power gating = 0.00511592 W
      Gate Leakage = 0.00454708 W
      Runtime Dynamic = 0.783676 W

*****************************************************************************************
Memory Controller:
      Area = 2.30319 mm^2
      Peak Dynamic = 0.253568 W
      Subthreshold Leakage = 0.0150843 W
      Subthreshold Leakage with power gating = 0.0110664 W
      Gate Leakage = 0.00587825 W
      Runtime Dynamic = 0.600231 W

      Front End Engine:
        Area = 0.0540171 mm^2
        Peak Dynamic = 0.0158937 W
        Subthreshold Leakage = 0.000990938 W
        Subthreshold Leakage with power gating = 0.000742236 W
        Gate Leakage = 0.000358666 W
        Runtime Dynamic = 0.0355144 W

      Transaction Engine:
        Area = 0.80734 mm^2
        Peak Dynamic = 0.0909976 W
        Subthreshold Leakage = 0.00505881 W
        Subthreshold Leakage with power gating = 0.00370587 W
        Gate Leakage = 0.00198126 W
        Runtime Dynamic = 0.203333 W

      PHY:
        Area = 1.44183 mm^2
        Peak Dynamic = 0.146677 W
        Subthreshold Leakage = 0.00903453 W
        Subthreshold Leakage with power gating = 0.00661832 W
        Gate Leakage = 0.00353833 W
        Runtime Dynamic = 0.361383 W

*****************************************************************************************
NOC
      Area = 1.0106 mm^2
      Peak Dynamic = 0.503109 W
      Subthreshold Leakage = 0.121159 W
      Subthreshold Leakage with power gating = 0.087721 W
      Gate Leakage = 0.0631273 W
      Runtime Dynamic = 0.166127 W

      Router: 
        Area = 0.505298 mm^2
        Peak Dynamic = 0.251555 W
        Subthreshold Leakage = 0.0605793 W
        Subthreshold Leakage with power gating = 0.0438605 W
        Gate Leakage = 0.0315636 W
        Runtime Dynamic = 0.166127 W

*****************************************************************************************
