McPAT (version 1.3 of Feb, 2015) is computing the target processor...
 
Warning: icache array structure cannot satisfy latency constraint.
Warning: Branch Target Buffer array structure cannot satisfy latency constraint.
Warning: Global Predictor array structure cannot satisfy latency constraint.
Warning: L1 local Predictor array structure cannot satisfy latency constraint.
Warning: L2 local Predictor array structure cannot satisfy latency constraint.
Warning: Predictor Chooser array structure cannot satisfy latency constraint.
Warning: dcache array structure cannot satisfy latency constraint.
Warning: dcache array structure cannot satisfy latency constraint.
Warning: dcache array structure cannot satisfy latency constraint.
Warning: dcache array structure cannot satisfy latency constraint.
Warning: dcache array structure cannot satisfy latency constraint.
Warning: dcache array structure cannot satisfy latency constraint.
Warning: dcache array structure cannot satisfy latency constraint.
Warning: dcache array structure cannot satisfy latency constraint.
Warning: dcache array structure cannot satisfy latency constraint.

McPAT (version 1.3 of Feb, 2015) results (current print level is 2, please increase print level to see the details in components): 
*****************************************************************************************
  Technology 45 nm
  Using Long Channel Devices When Appropriate
  Interconnect metal projection= aggressive interconnect technology projection
  Core clock Rate(MHz) 3200

*****************************************************************************************
Processor: 
  Area = 110.313 mm^2
  Peak Power = 27.8587 W
  Total Leakage = 4.31234 W
  Peak Dynamic = 23.5464 W
  Subthreshold Leakage = 0.787313 W
  Subthreshold Leakage with power gating = 0.406708 W
  Gate Leakage = 3.52503 W
  Runtime Dynamic = 12.0642 W

  Total Cores: 9 cores 
  Device Type= ITRS low operating power device type
    Area = 84.3339 mm^2
    Peak Dynamic = 21.1725 W
    Subthreshold Leakage = 0.224423 W
    Subthreshold Leakage with power gating = 0.101921 W
    Gate Leakage = 3.174 W
    Runtime Dynamic = 9.15451 W

  Total L2s: 
  Device Type= ITRS high performance device type
    Area = 7.9016 mm^2
    Peak Dynamic = 0.385436 W
    Subthreshold Leakage = 0.481522 W
    Subthreshold Leakage with power gating = 0.268227 W
    Gate Leakage = 0.0568271 W
    Runtime Dynamic = 0.304956 W

  Total First Level Directory: 
  Device Type= ITRS high performance device type
    Area = 0.723358 mm^2
    Peak Dynamic = 0.451657 W
    Subthreshold Leakage = 0.0630196 W
    Subthreshold Leakage with power gating = 0.0283588 W
    Gate Leakage = 0.00980793 W
    Runtime Dynamic = 1.84791 W

  Total NoCs (Network/Bus): 
  Device Type= ITRS low operating power device type
    Area = 2.29447 mm^2
    Peak Dynamic = 0.568792 W
    Subthreshold Leakage = 0.0108441 W
    Subthreshold Leakage with power gating = 0.00481177 W
    Gate Leakage = 0.18885 W
    Runtime Dynamic = 0.187816 W

  Total MCs: 4 Memory Controllers 
  Device Type= ITRS low operating power device type
    Area = 15.0598 mm^2
    Peak Dynamic = 0.968015 W
    Subthreshold Leakage = 0.0075054 W
    Subthreshold Leakage with power gating = 0.00338876 W
    Gate Leakage = 0.0955446 W
    Runtime Dynamic = 0.569004 W

*****************************************************************************************
Core:
      Area = 14.4501 mm^2
      Peak Dynamic = 4.11696 W
      Subthreshold Leakage = 0.0231634 W
      Subthreshold Leakage with power gating = 0.0107394 W
      Gate Leakage = 0.429437 W
      Runtime Dynamic = 1.7853 W

      Instruction Fetch Unit:
        Area = 9.19236 mm^2
        Peak Dynamic = 1.36153 W
        Subthreshold Leakage = 0.00828817 W
        Subthreshold Leakage with power gating = 0.00396391 W
        Gate Leakage = 0.156939 W
        Runtime Dynamic = 0.344736 W

      Load Store Unit:
        Area = 1.68843 mm^2
        Peak Dynamic = 0.371156 W
        Subthreshold Leakage = 0.00330639 W
        Subthreshold Leakage with power gating = 0.00156763 W
        Gate Leakage = 0.0722977 W
        Runtime Dynamic = 0.249003 W

      Memory Management Unit:
        Area = 0.58648 mm^2
        Peak Dynamic = 0.54434 W
        Subthreshold Leakage = 0.0017283 W
        Subthreshold Leakage with power gating = 0.000777735 W
        Runtime Dynamic = 0.329134 W

      Execution Unit:
        Area = 2.98283 mm^2
        Peak Dynamic = 1.83994 W
        Subthreshold Leakage = 0.00984055 W
        Subthreshold Leakage with power gating = 0.00443012 W
        Runtime Dynamic = 0.862424 W

*****************************************************************************************
Core:
      Area = 8.73548 mm^2
      Peak Dynamic = 2.13194 W
      Subthreshold Leakage = 0.0251574 W
      Subthreshold Leakage with power gating = 0.0113977 W
      Gate Leakage = 0.34307 W
      Runtime Dynamic = 0.921151 W

      Instruction Fetch Unit:
        Area = 0.558235 mm^2
        Peak Dynamic = 0.352375 W
        Subthreshold Leakage = 0.000986969 W
        Subthreshold Leakage with power gating = 0.000446069 W
        Gate Leakage = 0.0164834 W
        Runtime Dynamic = 0.127411 W

      Load Store Unit:
        Area = 2.27701 mm^2
        Peak Dynamic = 0.419085 W
        Subthreshold Leakage = 0.0026538 W
        Subthreshold Leakage with power gating = 0.00126382 W
        Gate Leakage = 0.045171 W
        Runtime Dynamic = 0.249793 W

      Memory Management Unit:
        Area = 0.349542 mm^2
        Peak Dynamic = 0.111616 W
        Subthreshold Leakage = 0.000576385 W
        Subthreshold Leakage with power gating = 0.000259373 W
        Runtime Dynamic = 0.0694998 W

      Execution Unit:
        Area = 2.83845 mm^2
        Peak Dynamic = 1.24886 W
        Subthreshold Leakage = 0.008716 W
        Subthreshold Leakage with power gating = 0.00392755 W
        Runtime Dynamic = 0.474446 W

*****************************************************************************************
Core:
      Area = 8.73548 mm^2
      Peak Dynamic = 2.13194 W
      Subthreshold Leakage = 0.0251574 W
      Subthreshold Leakage with power gating = 0.0113977 W
      Gate Leakage = 0.34307 W
      Runtime Dynamic = 0.921151 W

      Instruction Fetch Unit:
        Area = 0.558235 mm^2
        Peak Dynamic = 0.352375 W
        Subthreshold Leakage = 0.000986969 W
        Subthreshold Leakage with power gating = 0.000446069 W
        Gate Leakage = 0.0164834 W
        Runtime Dynamic = 0.127411 W

      Load Store Unit:
        Area = 2.27701 mm^2
        Peak Dynamic = 0.419085 W
        Subthreshold Leakage = 0.0026538 W
        Subthreshold Leakage with power gating = 0.00126382 W
        Gate Leakage = 0.045171 W
        Runtime Dynamic = 0.249793 W

      Memory Management Unit:
        Area = 0.349542 mm^2
        Peak Dynamic = 0.111616 W
        Subthreshold Leakage = 0.000576385 W
        Subthreshold Leakage with power gating = 0.000259373 W
        Runtime Dynamic = 0.0694998 W

      Execution Unit:
        Area = 2.83845 mm^2
        Peak Dynamic = 1.24886 W
        Subthreshold Leakage = 0.008716 W
        Subthreshold Leakage with power gating = 0.00392755 W
        Runtime Dynamic = 0.474446 W

*****************************************************************************************
Core:
      Area = 8.73548 mm^2
      Peak Dynamic = 2.13194 W
      Subthreshold Leakage = 0.0251574 W
      Subthreshold Leakage with power gating = 0.0113977 W
      Gate Leakage = 0.34307 W
      Runtime Dynamic = 0.921151 W

      Instruction Fetch Unit:
        Area = 0.558235 mm^2
        Peak Dynamic = 0.352375 W
        Subthreshold Leakage = 0.000986969 W
        Subthreshold Leakage with power gating = 0.000446069 W
        Gate Leakage = 0.0164834 W
        Runtime Dynamic = 0.127411 W

      Load Store Unit:
        Area = 2.27701 mm^2
        Peak Dynamic = 0.419085 W
        Subthreshold Leakage = 0.0026538 W
        Subthreshold Leakage with power gating = 0.00126382 W
        Gate Leakage = 0.045171 W
        Runtime Dynamic = 0.249793 W

      Memory Management Unit:
        Area = 0.349542 mm^2
        Peak Dynamic = 0.111616 W
        Subthreshold Leakage = 0.000576385 W
        Subthreshold Leakage with power gating = 0.000259373 W
        Runtime Dynamic = 0.0694998 W

      Execution Unit:
        Area = 2.83845 mm^2
        Peak Dynamic = 1.24886 W
        Subthreshold Leakage = 0.008716 W
        Subthreshold Leakage with power gating = 0.00392755 W
        Runtime Dynamic = 0.474446 W

*****************************************************************************************
Core:
      Area = 8.73548 mm^2
      Peak Dynamic = 2.13194 W
      Subthreshold Leakage = 0.0251574 W
      Subthreshold Leakage with power gating = 0.0113977 W
      Gate Leakage = 0.34307 W
      Runtime Dynamic = 0.921151 W

      Instruction Fetch Unit:
        Area = 0.558235 mm^2
        Peak Dynamic = 0.352375 W
        Subthreshold Leakage = 0.000986969 W
        Subthreshold Leakage with power gating = 0.000446069 W
        Gate Leakage = 0.0164834 W
        Runtime Dynamic = 0.127411 W

      Load Store Unit:
        Area = 2.27701 mm^2
        Peak Dynamic = 0.419085 W
        Subthreshold Leakage = 0.0026538 W
        Subthreshold Leakage with power gating = 0.00126382 W
        Gate Leakage = 0.045171 W
        Runtime Dynamic = 0.249793 W

      Memory Management Unit:
        Area = 0.349542 mm^2
        Peak Dynamic = 0.111616 W
        Subthreshold Leakage = 0.000576385 W
        Subthreshold Leakage with power gating = 0.000259373 W
        Runtime Dynamic = 0.0694998 W

      Execution Unit:
        Area = 2.83845 mm^2
        Peak Dynamic = 1.24886 W
        Subthreshold Leakage = 0.008716 W
        Subthreshold Leakage with power gating = 0.00392755 W
        Runtime Dynamic = 0.474446 W

*****************************************************************************************
Core:
      Area = 8.73548 mm^2
      Peak Dynamic = 2.13194 W
      Subthreshold Leakage = 0.0251574 W
      Subthreshold Leakage with power gating = 0.0113977 W
      Gate Leakage = 0.34307 W
      Runtime Dynamic = 0.921151 W

      Instruction Fetch Unit:
        Area = 0.558235 mm^2
        Peak Dynamic = 0.352375 W
        Subthreshold Leakage = 0.000986969 W
        Subthreshold Leakage with power gating = 0.000446069 W
        Gate Leakage = 0.0164834 W
        Runtime Dynamic = 0.127411 W

      Load Store Unit:
        Area = 2.27701 mm^2
        Peak Dynamic = 0.419085 W
        Subthreshold Leakage = 0.0026538 W
        Subthreshold Leakage with power gating = 0.00126382 W
        Gate Leakage = 0.045171 W
        Runtime Dynamic = 0.249793 W

      Memory Management Unit:
        Area = 0.349542 mm^2
        Peak Dynamic = 0.111616 W
        Subthreshold Leakage = 0.000576385 W
        Subthreshold Leakage with power gating = 0.000259373 W
        Runtime Dynamic = 0.0694998 W

      Execution Unit:
        Area = 2.83845 mm^2
        Peak Dynamic = 1.24886 W
        Subthreshold Leakage = 0.008716 W
        Subthreshold Leakage with power gating = 0.00392755 W
        Runtime Dynamic = 0.474446 W

*****************************************************************************************
Core:
      Area = 8.73548 mm^2
      Peak Dynamic = 2.13194 W
      Subthreshold Leakage = 0.0251574 W
      Subthreshold Leakage with power gating = 0.0113977 W
      Gate Leakage = 0.34307 W
      Runtime Dynamic = 0.921151 W

      Instruction Fetch Unit:
        Area = 0.558235 mm^2
        Peak Dynamic = 0.352375 W
        Subthreshold Leakage = 0.000986969 W
        Subthreshold Leakage with power gating = 0.000446069 W
        Gate Leakage = 0.0164834 W
        Runtime Dynamic = 0.127411 W

      Load Store Unit:
        Area = 2.27701 mm^2
        Peak Dynamic = 0.419085 W
        Subthreshold Leakage = 0.0026538 W
        Subthreshold Leakage with power gating = 0.00126382 W
        Gate Leakage = 0.045171 W
        Runtime Dynamic = 0.249793 W

      Memory Management Unit:
        Area = 0.349542 mm^2
        Peak Dynamic = 0.111616 W
        Subthreshold Leakage = 0.000576385 W
        Subthreshold Leakage with power gating = 0.000259373 W
        Runtime Dynamic = 0.0694998 W

      Execution Unit:
        Area = 2.83845 mm^2
        Peak Dynamic = 1.24886 W
        Subthreshold Leakage = 0.008716 W
        Subthreshold Leakage with power gating = 0.00392755 W
        Runtime Dynamic = 0.474446 W

*****************************************************************************************
Core:
      Area = 8.73548 mm^2
      Peak Dynamic = 2.13194 W
      Subthreshold Leakage = 0.0251574 W
      Subthreshold Leakage with power gating = 0.0113977 W
      Gate Leakage = 0.34307 W
      Runtime Dynamic = 0.921151 W

      Instruction Fetch Unit:
        Area = 0.558235 mm^2
        Peak Dynamic = 0.352375 W
        Subthreshold Leakage = 0.000986969 W
        Subthreshold Leakage with power gating = 0.000446069 W
        Gate Leakage = 0.0164834 W
        Runtime Dynamic = 0.127411 W

      Load Store Unit:
        Area = 2.27701 mm^2
        Peak Dynamic = 0.419085 W
        Subthreshold Leakage = 0.0026538 W
        Subthreshold Leakage with power gating = 0.00126382 W
        Gate Leakage = 0.045171 W
        Runtime Dynamic = 0.249793 W

      Memory Management Unit:
        Area = 0.349542 mm^2
        Peak Dynamic = 0.111616 W
        Subthreshold Leakage = 0.000576385 W
        Subthreshold Leakage with power gating = 0.000259373 W
        Runtime Dynamic = 0.0694998 W

      Execution Unit:
        Area = 2.83845 mm^2
        Peak Dynamic = 1.24886 W
        Subthreshold Leakage = 0.008716 W
        Subthreshold Leakage with power gating = 0.00392755 W
        Runtime Dynamic = 0.474446 W

*****************************************************************************************
Core:
      Area = 8.73548 mm^2
      Peak Dynamic = 2.13194 W
      Subthreshold Leakage = 0.0251574 W
      Subthreshold Leakage with power gating = 0.0113977 W
      Gate Leakage = 0.34307 W
      Runtime Dynamic = 0.921151 W

      Instruction Fetch Unit:
        Area = 0.558235 mm^2
        Peak Dynamic = 0.352375 W
        Subthreshold Leakage = 0.000986969 W
        Subthreshold Leakage with power gating = 0.000446069 W
        Gate Leakage = 0.0164834 W
        Runtime Dynamic = 0.127411 W

      Load Store Unit:
        Area = 2.27701 mm^2
        Peak Dynamic = 0.419085 W
        Subthreshold Leakage = 0.0026538 W
        Subthreshold Leakage with power gating = 0.00126382 W
        Gate Leakage = 0.045171 W
        Runtime Dynamic = 0.249793 W

      Memory Management Unit:
        Area = 0.349542 mm^2
        Peak Dynamic = 0.111616 W
        Subthreshold Leakage = 0.000576385 W
        Subthreshold Leakage with power gating = 0.000259373 W
        Runtime Dynamic = 0.0694998 W

      Execution Unit:
        Area = 2.83845 mm^2
        Peak Dynamic = 1.24886 W
        Subthreshold Leakage = 0.008716 W
        Subthreshold Leakage with power gating = 0.00392755 W
        Runtime Dynamic = 0.474446 W

*****************************************************************************************
L2
      Area = 7.9016 mm^2
      Peak Dynamic = 0.385436 W
      Subthreshold Leakage = 0.481522 W
      Subthreshold Leakage with power gating = 0.268227 W
      Gate Leakage = 0.0568271 W
      Runtime Dynamic = 0.304956 W

*****************************************************************************************
First Level Directory
      Area = 0.361679 mm^2
      Peak Dynamic = 0.225829 W
      Subthreshold Leakage = 0.0315098 W
      Subthreshold Leakage with power gating = 0.0141794 W
      Gate Leakage = 0.00490396 W
      Runtime Dynamic = 1.84791 W

*****************************************************************************************
Memory Controller:
      Area = 3.76496 mm^2
      Peak Dynamic = 0.242004 W
      Subthreshold Leakage = 0.00187635 W
      Subthreshold Leakage with power gating = 0.000847191 W
      Gate Leakage = 0.0238862 W
      Runtime Dynamic = 0.569004 W

      Front End Engine:
        Area = 0.150223 mm^2
        Peak Dynamic = 0.0219189 W
        Subthreshold Leakage = 0.000112108 W
        Subthreshold Leakage with power gating = 5.32809e-05 W
        Gate Leakage = 0.00130262 W
        Runtime Dynamic = 0.0489776 W

      Transaction Engine:
        Area = 1.29751 mm^2
        Peak Dynamic = 0.096891 W
        Subthreshold Leakage = 0.000633276 W
        Subthreshold Leakage with power gating = 0.000284974 W
        Gate Leakage = 0.00810637 W
        Runtime Dynamic = 0.216502 W

      PHY:
        Area = 2.31722 mm^2
        Peak Dynamic = 0.123194 W
        Subthreshold Leakage = 0.00113097 W
        Subthreshold Leakage with power gating = 0.000508935 W
        Gate Leakage = 0.0144772 W
        Runtime Dynamic = 0.303525 W

*****************************************************************************************
NOC
      Area = 2.29447 mm^2
      Peak Dynamic = 0.568792 W
      Subthreshold Leakage = 0.0108441 W
      Subthreshold Leakage with power gating = 0.00481177 W
      Gate Leakage = 0.18885 W
      Runtime Dynamic = 0.187816 W

      Router: 
        Area = 1.14724 mm^2
        Peak Dynamic = 0.284396 W
        Subthreshold Leakage = 0.00542203 W
        Subthreshold Leakage with power gating = 0.00240588 W
        Gate Leakage = 0.0944248 W
        Runtime Dynamic = 0.187816 W

*****************************************************************************************
