McPAT (version 1.3 of Feb, 2015) is computing the target processor...
 
Warning: icache array structure cannot satisfy throughput constraint.
Warning: icache array structure cannot satisfy latency constraint.
Warning: Branch Target Buffer array structure cannot satisfy throughput constraint.
Warning: Branch Target Buffer array structure cannot satisfy latency constraint.
Warning: Global Predictor array structure cannot satisfy throughput constraint.
Warning: Global Predictor array structure cannot satisfy latency constraint.
Warning: L1 local Predictor array structure cannot satisfy throughput constraint.
Warning: L1 local Predictor array structure cannot satisfy latency constraint.
Warning: L2 local Predictor array structure cannot satisfy throughput constraint.
Warning: L2 local Predictor array structure cannot satisfy latency constraint.
Warning: Predictor Chooser array structure cannot satisfy throughput constraint.
Warning: Predictor Chooser array structure cannot satisfy latency constraint.
Warning: dcache array structure cannot satisfy throughput constraint.
Warning: dcache array structure cannot satisfy latency constraint.
Warning: dcache array structure cannot satisfy throughput constraint.
Warning: dcache array structure cannot satisfy latency constraint.

McPAT (version 1.3 of Feb, 2015) results (current print level is 2, please increase print level to see the details in components): 
*****************************************************************************************
  Technology 90 nm
  Using Long Channel Devices When Appropriate
  Interconnect metal projection= aggressive interconnect technology projection
  Core clock Rate(MHz) 2800

*****************************************************************************************
Processor: 
  Area = 139.261 mm^2
  Peak Power = 38.1321 W
  Total Leakage = 2.81971 W
  Peak Dynamic = 35.3124 W
  Subthreshold Leakage = 1.68982 W
  Subthreshold Leakage with power gating = 0.723923 W
  Gate Leakage = 1.12989 W
  Runtime Dynamic = 21.5618 W

  Total Cores: 2 cores 
  Device Type= ITRS low operating power device type
    Area = 65.1233 mm^2
    Peak Dynamic = 27.0299 W
    Subthreshold Leakage = 0.890262 W
    Subthreshold Leakage with power gating = 0.293713 W
    Gate Leakage = 0.830967 W
    Runtime Dynamic = 12.1617 W

  Total L2s: 
  Device Type= ITRS high performance device type
    Area = 26.7988 mm^2
    Peak Dynamic = 1.32683 W
    Subthreshold Leakage = 0.595868 W
    Subthreshold Leakage with power gating = 0.338725 W
    Gate Leakage = 0.0487379 W
    Runtime Dynamic = 0.837647 W

  Total First Level Directory: 
  Device Type= ITRS high performance device type
    Area = 7.04503 mm^2
    Peak Dynamic = 1.78755 W
    Subthreshold Leakage = 0.143642 W
    Subthreshold Leakage with power gating = 0.0646388 W
    Gate Leakage = 0.0219155 W
    Runtime Dynamic = 6.41374 W

  Total NoCs (Network/Bus): 
  Device Type= ITRS low operating power device type
    Area = 9.13285 mm^2
    Peak Dynamic = 2.3532 W
    Subthreshold Leakage = 0.0326856 W
    Subthreshold Leakage with power gating = 0.014495 W
    Gate Leakage = 0.142015 W
    Runtime Dynamic = 0.679901 W

  Total MCs: 4 Memory Controllers 
  Device Type= ITRS low operating power device type
    Area = 31.1615 mm^2
    Peak Dynamic = 2.81494 W
    Subthreshold Leakage = 0.0273602 W
    Subthreshold Leakage with power gating = 0.0123514 W
    Gate Leakage = 0.0862538 W
    Runtime Dynamic = 1.4689 W

*****************************************************************************************
Core:
      Area = 43.4685 mm^2
      Peak Dynamic = 14.6453 W
      Subthreshold Leakage = 0.0932535 W
      Subthreshold Leakage with power gating = 0.0431101 W
      Gate Leakage = 0.405619 W
      Runtime Dynamic = 6.39595 W

      Instruction Fetch Unit:
        Area = 23.7711 mm^2
        Peak Dynamic = 4.46245 W
        Subthreshold Leakage = 0.0223651 W
        Subthreshold Leakage with power gating = 0.0109306 W
        Gate Leakage = 0.108664 W
        Runtime Dynamic = 1.1158 W

      Load Store Unit:
        Area = 6.09072 mm^2
        Peak Dynamic = 1.41556 W
        Subthreshold Leakage = 0.0108503 W
        Subthreshold Leakage with power gating = 0.00515514 W
        Gate Leakage = 0.0600773 W
        Runtime Dynamic = 0.947366 W

      Memory Management Unit:
        Area = 2.33442 mm^2
        Peak Dynamic = 2.08838 W
        Subthreshold Leakage = 0.0058005 W
        Subthreshold Leakage with power gating = 0.00261023 W
        Runtime Dynamic = 1.26254 W

      Execution Unit:
        Area = 11.2723 mm^2
        Peak Dynamic = 6.67889 W
        Subthreshold Leakage = 0.0542376 W
        Subthreshold Leakage with power gating = 0.0244142 W
        Runtime Dynamic = 3.07025 W

*****************************************************************************************
Core:
      Area = 21.6548 mm^2
      Peak Dynamic = 12.3846 W
      Subthreshold Leakage = 0.797008 W
      Subthreshold Leakage with power gating = 0.250603 W
      Gate Leakage = 0.425349 W
      Runtime Dynamic = 5.7657 W

      Instruction Fetch Unit:
        Area = 2.16128 mm^2
        Peak Dynamic = 2.64136 W
        Subthreshold Leakage = 0.0286096 W
        Subthreshold Leakage with power gating = 0.00897076 W
        Gate Leakage = 0.0194244 W
        Runtime Dynamic = 1.06335 W

      Load Store Unit:
        Area = 6.56708 mm^2
        Peak Dynamic = 2.13798 W
        Subthreshold Leakage = 0.0593448 W
        Subthreshold Leakage with power gating = 0.0205106 W
        Gate Leakage = 0.0359901 W
        Runtime Dynamic = 1.09543 W

      Memory Management Unit:
        Area = 1.38788 mm^2
        Peak Dynamic = 0.860875 W
        Subthreshold Leakage = 0.0169417 W
        Subthreshold Leakage with power gating = 0.00527799 W
        Runtime Dynamic = 0.533848 W

      Execution Unit:
        Area = 6.00335 mm^2
        Peak Dynamic = 6.7444 W
        Subthreshold Leakage = 0.282747 W
        Subthreshold Leakage with power gating = 0.0883103 W
        Runtime Dynamic = 3.07308 W

*****************************************************************************************
L2
      Area = 26.7988 mm^2
      Peak Dynamic = 1.32683 W
      Subthreshold Leakage = 0.595868 W
      Subthreshold Leakage with power gating = 0.338725 W
      Gate Leakage = 0.0487379 W
      Runtime Dynamic = 0.837647 W

*****************************************************************************************
First Level Directory
      Area = 3.52251 mm^2
      Peak Dynamic = 0.893775 W
      Subthreshold Leakage = 0.0718209 W
      Subthreshold Leakage with power gating = 0.0323194 W
      Gate Leakage = 0.0109578 W
      Runtime Dynamic = 6.41374 W

*****************************************************************************************
Memory Controller:
      Area = 7.79038 mm^2
      Peak Dynamic = 0.703736 W
      Subthreshold Leakage = 0.00684005 W
      Subthreshold Leakage with power gating = 0.00308785 W
      Gate Leakage = 0.0215635 W
      Runtime Dynamic = 1.4689 W

      Front End Engine:
        Area = 0.560906 mm^2
        Peak Dynamic = 0.0954019 W
        Subthreshold Leakage = 0.000364586 W
        Subthreshold Leakage with power gating = 0.000173893 W
        Gate Leakage = 0.00104195 W
        Runtime Dynamic = 0.191298 W

      Transaction Engine:
        Area = 2.59502 mm^2
        Peak Dynamic = 0.320334 W
        Subthreshold Leakage = 0.00232437 W
        Subthreshold Leakage with power gating = 0.00104597 W
        Gate Leakage = 0.00736621 W
        Runtime Dynamic = 0.642326 W

      PHY:
        Area = 4.63445 mm^2
        Peak Dynamic = 0.288 W
        Subthreshold Leakage = 0.00415109 W
        Subthreshold Leakage with power gating = 0.00186799 W
        Gate Leakage = 0.0131553 W
        Runtime Dynamic = 0.635278 W

*****************************************************************************************
NOC
      Area = 9.13285 mm^2
      Peak Dynamic = 2.3532 W
      Subthreshold Leakage = 0.0326856 W
      Subthreshold Leakage with power gating = 0.014495 W
      Gate Leakage = 0.142015 W
      Runtime Dynamic = 0.679901 W

      Router: 
        Area = 4.56643 mm^2
        Peak Dynamic = 1.1766 W
        Subthreshold Leakage = 0.0163428 W
        Subthreshold Leakage with power gating = 0.00724749 W
        Gate Leakage = 0.0710077 W
        Runtime Dynamic = 0.679901 W

*****************************************************************************************
