McPAT (version 1.3 of Feb, 2015) is computing the target processor...
 
Warning: icache array structure cannot satisfy throughput constraint.
Warning: icache array structure cannot satisfy latency constraint.
Warning: Branch Target Buffer array structure cannot satisfy throughput constraint.
Warning: Branch Target Buffer array structure cannot satisfy latency constraint.
Warning: Global Predictor array structure cannot satisfy throughput constraint.
Warning: Global Predictor array structure cannot satisfy latency constraint.
Warning: L1 local Predictor array structure cannot satisfy throughput constraint.
Warning: L1 local Predictor array structure cannot satisfy latency constraint.
Warning: L2 local Predictor array structure cannot satisfy throughput constraint.
Warning: L2 local Predictor array structure cannot satisfy latency constraint.
Warning: Predictor Chooser array structure cannot satisfy throughput constraint.
Warning: Predictor Chooser array structure cannot satisfy latency constraint.
Warning: dcache array structure cannot satisfy throughput constraint.
Warning: dcache array structure cannot satisfy latency constraint.
Warning: dcache array structure cannot satisfy throughput constraint.
Warning: dcache array structure cannot satisfy latency constraint.

McPAT (version 1.3 of Feb, 2015) results (current print level is 2, please increase print level to see the details in components): 
*****************************************************************************************
  Technology 90 nm
  Using Long Channel Devices When Appropriate
  Interconnect metal projection= aggressive interconnect technology projection
  Core clock Rate(MHz) 2400

*****************************************************************************************
Processor: 
  Area = 141.146 mm^2
  Peak Power = 31.3851 W
  Total Leakage = 2.26499 W
  Peak Dynamic = 29.1201 W
  Subthreshold Leakage = 1.19011 W
  Subthreshold Leakage with power gating = 0.583633 W
  Gate Leakage = 1.07487 W
  Runtime Dynamic = 17.5128 W

  Total Cores: 2 cores 
  Device Type= ITRS low operating power device type
    Area = 67.0075 mm^2
    Peak Dynamic = 20.8376 W
    Subthreshold Leakage = 0.390556 W
    Subthreshold Leakage with power gating = 0.153423 W
    Gate Leakage = 0.775951 W
    Runtime Dynamic = 9.41525 W

  Total L2s: 
  Device Type= ITRS high performance device type
    Area = 26.7988 mm^2
    Peak Dynamic = 1.32683 W
    Subthreshold Leakage = 0.595868 W
    Subthreshold Leakage with power gating = 0.338725 W
    Gate Leakage = 0.0487379 W
    Runtime Dynamic = 0.717983 W

  Total First Level Directory: 
  Device Type= ITRS high performance device type
    Area = 7.04503 mm^2
    Peak Dynamic = 1.78755 W
    Subthreshold Leakage = 0.143642 W
    Subthreshold Leakage with power gating = 0.0646388 W
    Gate Leakage = 0.0219155 W
    Runtime Dynamic = 5.49749 W

  Total NoCs (Network/Bus): 
  Device Type= ITRS low operating power device type
    Area = 9.13285 mm^2
    Peak Dynamic = 2.3532 W
    Subthreshold Leakage = 0.0326856 W
    Subthreshold Leakage with power gating = 0.014495 W
    Gate Leakage = 0.142015 W
    Runtime Dynamic = 0.582773 W

  Total MCs: 4 Memory Controllers 
  Device Type= ITRS low operating power device type
    Area = 31.1615 mm^2
    Peak Dynamic = 2.81494 W
    Subthreshold Leakage = 0.0273602 W
    Subthreshold Leakage with power gating = 0.0123514 W
    Gate Leakage = 0.0862538 W
    Runtime Dynamic = 1.29927 W

*****************************************************************************************
Core:
      Area = 43.4685 mm^2
      Peak Dynamic = 12.5531 W
      Subthreshold Leakage = 0.0932535 W
      Subthreshold Leakage with power gating = 0.0431101 W
      Gate Leakage = 0.405619 W
      Runtime Dynamic = 5.48224 W

      Instruction Fetch Unit:
        Area = 23.7711 mm^2
        Peak Dynamic = 3.82496 W
        Subthreshold Leakage = 0.0223651 W
        Subthreshold Leakage with power gating = 0.0109306 W
        Gate Leakage = 0.108664 W
        Runtime Dynamic = 0.956397 W

      Load Store Unit:
        Area = 6.09072 mm^2
        Peak Dynamic = 1.21334 W
        Subthreshold Leakage = 0.0108503 W
        Subthreshold Leakage with power gating = 0.00515514 W
        Gate Leakage = 0.0600773 W
        Runtime Dynamic = 0.812028 W

      Memory Management Unit:
        Area = 2.33442 mm^2
        Peak Dynamic = 1.79004 W
        Subthreshold Leakage = 0.0058005 W
        Subthreshold Leakage with power gating = 0.00261023 W
        Runtime Dynamic = 1.08218 W

      Execution Unit:
        Area = 11.2723 mm^2
        Peak Dynamic = 5.72477 W
        Subthreshold Leakage = 0.0542376 W
        Subthreshold Leakage with power gating = 0.0244142 W
        Runtime Dynamic = 2.63164 W

*****************************************************************************************
Core:
      Area = 23.539 mm^2
      Peak Dynamic = 8.28446 W
      Subthreshold Leakage = 0.297303 W
      Subthreshold Leakage with power gating = 0.110313 W
      Gate Leakage = 0.370332 W
      Runtime Dynamic = 3.93301 W

      Instruction Fetch Unit:
        Area = 2.1663 mm^2
        Peak Dynamic = 1.6835 W
        Subthreshold Leakage = 0.0105004 W
        Subthreshold Leakage with power gating = 0.0038876 W
        Gate Leakage = 0.0164361 W
        Runtime Dynamic = 0.656991 W

      Load Store Unit:
        Area = 8.44055 mm^2
        Peak Dynamic = 1.73791 W
        Subthreshold Leakage = 0.0265602 W
        Subthreshold Leakage with power gating = 0.0105341 W
        Gate Leakage = 0.0408731 W
        Runtime Dynamic = 1.01312 W

      Memory Management Unit:
        Area = 1.38745 mm^2
        Peak Dynamic = 0.534313 W
        Subthreshold Leakage = 0.00621792 W
        Subthreshold Leakage with power gating = 0.00228933 W
        Runtime Dynamic = 0.331746 W

      Execution Unit:
        Area = 6.00947 mm^2
        Peak Dynamic = 4.32874 W
        Subthreshold Leakage = 0.103777 W
        Subthreshold Leakage with power gating = 0.0382834 W
        Runtime Dynamic = 1.93115 W

*****************************************************************************************
L2
      Area = 26.7988 mm^2
      Peak Dynamic = 1.32683 W
      Subthreshold Leakage = 0.595868 W
      Subthreshold Leakage with power gating = 0.338725 W
      Gate Leakage = 0.0487379 W
      Runtime Dynamic = 0.717983 W

*****************************************************************************************
First Level Directory
      Area = 3.52251 mm^2
      Peak Dynamic = 0.893775 W
      Subthreshold Leakage = 0.0718209 W
      Subthreshold Leakage with power gating = 0.0323194 W
      Gate Leakage = 0.0109578 W
      Runtime Dynamic = 5.49749 W

*****************************************************************************************
Memory Controller:
      Area = 7.79038 mm^2
      Peak Dynamic = 0.703736 W
      Subthreshold Leakage = 0.00684005 W
      Subthreshold Leakage with power gating = 0.00308785 W
      Gate Leakage = 0.0215635 W
      Runtime Dynamic = 1.29927 W

      Front End Engine:
        Area = 0.560906 mm^2
        Peak Dynamic = 0.0954019 W
        Subthreshold Leakage = 0.000364586 W
        Subthreshold Leakage with power gating = 0.000173893 W
        Gate Leakage = 0.00104195 W
        Runtime Dynamic = 0.169421 W

      Transaction Engine:
        Area = 2.59502 mm^2
        Peak Dynamic = 0.320334 W
        Subthreshold Leakage = 0.00232437 W
        Subthreshold Leakage with power gating = 0.00104597 W
        Gate Leakage = 0.00736621 W
        Runtime Dynamic = 0.56887 W

      PHY:
        Area = 4.63445 mm^2
        Peak Dynamic = 0.288 W
        Subthreshold Leakage = 0.00415109 W
        Subthreshold Leakage with power gating = 0.00186799 W
        Gate Leakage = 0.0131553 W
        Runtime Dynamic = 0.560981 W

*****************************************************************************************
NOC
      Area = 9.13285 mm^2
      Peak Dynamic = 2.3532 W
      Subthreshold Leakage = 0.0326856 W
      Subthreshold Leakage with power gating = 0.014495 W
      Gate Leakage = 0.142015 W
      Runtime Dynamic = 0.582773 W

      Router: 
        Area = 4.56643 mm^2
        Peak Dynamic = 1.1766 W
        Subthreshold Leakage = 0.0163428 W
        Subthreshold Leakage with power gating = 0.00724749 W
        Gate Leakage = 0.0710077 W
        Runtime Dynamic = 0.582773 W

*****************************************************************************************
