McPAT (version 1.3 of Feb, 2015) is computing the target processor...
 
Warning: icache array structure cannot satisfy throughput constraint.
Warning: icache array structure cannot satisfy latency constraint.
Warning: Branch Target Buffer array structure cannot satisfy throughput constraint.
Warning: Branch Target Buffer array structure cannot satisfy latency constraint.
Warning: Global Predictor array structure cannot satisfy throughput constraint.
Warning: Global Predictor array structure cannot satisfy latency constraint.
Warning: L1 local Predictor array structure cannot satisfy throughput constraint.
Warning: L1 local Predictor array structure cannot satisfy latency constraint.
Warning: L2 local Predictor array structure cannot satisfy throughput constraint.
Warning: L2 local Predictor array structure cannot satisfy latency constraint.
Warning: Predictor Chooser array structure cannot satisfy throughput constraint.
Warning: Predictor Chooser array structure cannot satisfy latency constraint.
Warning: dcache array structure cannot satisfy throughput constraint.
Warning: dcache array structure cannot satisfy latency constraint.
Warning: dcache array structure cannot satisfy throughput constraint.
Warning: dcache array structure cannot satisfy latency constraint.

McPAT (version 1.3 of Feb, 2015) results (current print level is 2, please increase print level to see the details in components): 
*****************************************************************************************
  Technology 90 nm
  Using Long Channel Devices When Appropriate
  Interconnect metal projection= aggressive interconnect technology projection
  Core clock Rate(MHz) 3800

*****************************************************************************************
Processor: 
  Area = 141.146 mm^2
  Peak Power = 43.5403 W
  Total Leakage = 2.26499 W
  Peak Dynamic = 41.2753 W
  Subthreshold Leakage = 1.19011 W
  Subthreshold Leakage with power gating = 0.583633 W
  Gate Leakage = 1.07487 W
  Runtime Dynamic = 27.5643 W

  Total Cores: 2 cores 
  Device Type= ITRS low operating power device type
    Area = 67.0075 mm^2
    Peak Dynamic = 32.9928 W
    Subthreshold Leakage = 0.390556 W
    Subthreshold Leakage with power gating = 0.153423 W
    Gate Leakage = 0.775951 W
    Runtime Dynamic = 14.9075 W

  Total L2s: 
  Device Type= ITRS high performance device type
    Area = 26.7988 mm^2
    Peak Dynamic = 1.32683 W
    Subthreshold Leakage = 0.595868 W
    Subthreshold Leakage with power gating = 0.338725 W
    Gate Leakage = 0.0487379 W
    Runtime Dynamic = 1.13681 W

  Total First Level Directory: 
  Device Type= ITRS high performance device type
    Area = 7.04503 mm^2
    Peak Dynamic = 1.78755 W
    Subthreshold Leakage = 0.143642 W
    Subthreshold Leakage with power gating = 0.0646388 W
    Gate Leakage = 0.0219155 W
    Runtime Dynamic = 8.70436 W

  Total NoCs (Network/Bus): 
  Device Type= ITRS low operating power device type
    Area = 9.13285 mm^2
    Peak Dynamic = 2.3532 W
    Subthreshold Leakage = 0.0326856 W
    Subthreshold Leakage with power gating = 0.014495 W
    Gate Leakage = 0.142015 W
    Runtime Dynamic = 0.922723 W

  Total MCs: 4 Memory Controllers 
  Device Type= ITRS low operating power device type
    Area = 31.1615 mm^2
    Peak Dynamic = 2.81494 W
    Subthreshold Leakage = 0.0273602 W
    Subthreshold Leakage with power gating = 0.0123514 W
    Gate Leakage = 0.0862538 W
    Runtime Dynamic = 1.89298 W

*****************************************************************************************
Core:
      Area = 43.4685 mm^2
      Peak Dynamic = 19.8757 W
      Subthreshold Leakage = 0.0932535 W
      Subthreshold Leakage with power gating = 0.0431101 W
      Gate Leakage = 0.405619 W
      Runtime Dynamic = 8.68021 W

      Instruction Fetch Unit:
        Area = 23.7711 mm^2
        Peak Dynamic = 6.05618 W
        Subthreshold Leakage = 0.0223651 W
        Subthreshold Leakage with power gating = 0.0109306 W
        Gate Leakage = 0.108664 W
        Runtime Dynamic = 1.5143 W

      Load Store Unit:
        Area = 6.09072 mm^2
        Peak Dynamic = 1.92112 W
        Subthreshold Leakage = 0.0108503 W
        Subthreshold Leakage with power gating = 0.00515514 W
        Gate Leakage = 0.0600773 W
        Runtime Dynamic = 1.28571 W

      Memory Management Unit:
        Area = 2.33442 mm^2
        Peak Dynamic = 2.83423 W
        Subthreshold Leakage = 0.0058005 W
        Subthreshold Leakage with power gating = 0.00261023 W
        Runtime Dynamic = 1.71344 W

      Execution Unit:
        Area = 11.2723 mm^2
        Peak Dynamic = 9.06421 W
        Subthreshold Leakage = 0.0542376 W
        Subthreshold Leakage with power gating = 0.0244142 W
        Runtime Dynamic = 4.16676 W

*****************************************************************************************
Core:
      Area = 23.539 mm^2
      Peak Dynamic = 13.1171 W
      Subthreshold Leakage = 0.297303 W
      Subthreshold Leakage with power gating = 0.110313 W
      Gate Leakage = 0.370332 W
      Runtime Dynamic = 6.22726 W

      Instruction Fetch Unit:
        Area = 2.1663 mm^2
        Peak Dynamic = 2.66554 W
        Subthreshold Leakage = 0.0105004 W
        Subthreshold Leakage with power gating = 0.0038876 W
        Gate Leakage = 0.0164361 W
        Runtime Dynamic = 1.04024 W

      Load Store Unit:
        Area = 8.44055 mm^2
        Peak Dynamic = 2.75169 W
        Subthreshold Leakage = 0.0265602 W
        Subthreshold Leakage with power gating = 0.0105341 W
        Gate Leakage = 0.0408731 W
        Runtime Dynamic = 1.6041 W

      Memory Management Unit:
        Area = 1.38745 mm^2
        Peak Dynamic = 0.845995 W
        Subthreshold Leakage = 0.00621792 W
        Subthreshold Leakage with power gating = 0.00228933 W
        Runtime Dynamic = 0.525265 W

      Execution Unit:
        Area = 6.00947 mm^2
        Peak Dynamic = 6.85384 W
        Subthreshold Leakage = 0.103777 W
        Subthreshold Leakage with power gating = 0.0382834 W
        Runtime Dynamic = 3.05766 W

*****************************************************************************************
L2
      Area = 26.7988 mm^2
      Peak Dynamic = 1.32683 W
      Subthreshold Leakage = 0.595868 W
      Subthreshold Leakage with power gating = 0.338725 W
      Gate Leakage = 0.0487379 W
      Runtime Dynamic = 1.13681 W

*****************************************************************************************
First Level Directory
      Area = 3.52251 mm^2
      Peak Dynamic = 0.893775 W
      Subthreshold Leakage = 0.0718209 W
      Subthreshold Leakage with power gating = 0.0323194 W
      Gate Leakage = 0.0109578 W
      Runtime Dynamic = 8.70436 W

*****************************************************************************************
Memory Controller:
      Area = 7.79038 mm^2
      Peak Dynamic = 0.703736 W
      Subthreshold Leakage = 0.00684005 W
      Subthreshold Leakage with power gating = 0.00308785 W
      Gate Leakage = 0.0215635 W
      Runtime Dynamic = 1.89298 W

      Front End Engine:
        Area = 0.560906 mm^2
        Peak Dynamic = 0.0954019 W
        Subthreshold Leakage = 0.000364586 W
        Subthreshold Leakage with power gating = 0.000173893 W
        Gate Leakage = 0.00104195 W
        Runtime Dynamic = 0.24599 W

      Transaction Engine:
        Area = 2.59502 mm^2
        Peak Dynamic = 0.320334 W
        Subthreshold Leakage = 0.00232437 W
        Subthreshold Leakage with power gating = 0.00104597 W
        Gate Leakage = 0.00736621 W
        Runtime Dynamic = 0.825966 W

      PHY:
        Area = 4.63445 mm^2
        Peak Dynamic = 0.288 W
        Subthreshold Leakage = 0.00415109 W
        Subthreshold Leakage with power gating = 0.00186799 W
        Gate Leakage = 0.0131553 W
        Runtime Dynamic = 0.82102 W

*****************************************************************************************
NOC
      Area = 9.13285 mm^2
      Peak Dynamic = 2.3532 W
      Subthreshold Leakage = 0.0326856 W
      Subthreshold Leakage with power gating = 0.014495 W
      Gate Leakage = 0.142015 W
      Runtime Dynamic = 0.922723 W

      Router: 
        Area = 4.56643 mm^2
        Peak Dynamic = 1.1766 W
        Subthreshold Leakage = 0.0163428 W
        Subthreshold Leakage with power gating = 0.00724749 W
        Gate Leakage = 0.0710077 W
        Runtime Dynamic = 0.922723 W

*****************************************************************************************
